<connections>
  <connection from="1si" to="3o" fromLane="0" toLane="0"/>
</connections>