<?xml version="1.0" encoding="UTF-8"?>

<!-- generated on Thu May 13 07:42:53 2021 by Eclipse SUMO netconvert Version 1.9.0
<configuration xmlns:xsi="http://www.w3.org/2001/XMLSchema-instance" xsi:noNamespaceSchemaLocation="http://sumo.dlr.de/xsd/netconvertConfiguration.xsd">

    <input>
        <node-files value="myhw.nod.xml"/>
        <edge-files value="myhw.edg.xml"/>
    </input>

    <output>
        <output-file value="myhw.net.xml"/>
    </output>

    <report>
        <aggregate-warnings value="5"/>
    </report>

</configuration>
-->

<net version="1.9" junctionCornerDetail="5" limitTurnSpeed="5.50" xmlns:xsi="http://www.w3.org/2001/XMLSchema-instance" xsi:noNamespaceSchemaLocation="http://sumo.dlr.de/xsd/net_file.xsd">

    <location netOffset="30.00,6.00" convBoundary="0.00,0.00,70.00,6.00" origBoundary="-30.00,-6.00,40.00,0.00" projParameter="!"/>

    <edge id=":2_0" function="internal">
        <lane id=":2_0_0" index="0" speed="30.00" length="15.16" shape="37.24,0.86 40.87,1.97 44.52,3.12 48.20,4.03 51.93,4.40"/>
    </edge>
    <edge id=":2_1" function="internal">
        <lane id=":2_1_0" index="0" speed="30.00" length="15.16" shape="36.77,4.40 51.93,4.40"/>
    </edge>

    <edge id="a" from="0" to="2" priority="2">
        <lane id="a_0" index="0" speed="30.00" length="36.77" shape="0.00,4.40 36.77,4.40"/>
    </edge>
    <edge id="b" from="1" to="2" priority="1">
        <lane id="b_0" index="0" speed="30.00" length="9.14" shape="28.42,-1.54 37.24,0.86"/>
    </edge>
    <edge id="c" from="2" to="3" priority="3">
        <lane id="c_0" index="0" speed="30.00" length="18.07" shape="51.93,4.40 70.00,4.40"/>
    </edge>

    <junction id="0" type="dead_end" x="0.00" y="6.00" incLanes="" intLanes="" shape="0.00,6.00 0.00,2.80"/>
    <junction id="1" type="dead_end" x="28.00" y="0.00" incLanes="" intLanes="" shape="28.00,-0.00 28.84,-3.09"/>
    <junction id="2" type="priority" x="50.00" y="6.00" incLanes="b_0 a_0" intLanes=":2_0_0 :2_1_0" shape="51.93,6.00 51.93,2.80 48.81,2.68 46.54,2.33 44.70,1.78 42.88,1.08 40.67,0.25 37.66,-0.68 36.82,2.41 36.77,2.80 36.77,6.00">
        <request index="0" response="10" foes="10" cont="0"/>
        <request index="1" response="00" foes="01" cont="0"/>
    </junction>
    <junction id="3" type="dead_end" x="70.00" y="6.00" incLanes="c_0" intLanes="" shape="70.00,2.80 70.00,6.00"/>

    <connection from="a" to="c" fromLane="0" toLane="0" via=":2_1_0" dir="s" state="M"/>
    <connection from="b" to="c" fromLane="0" toLane="0" via=":2_0_0" dir="s" state="m"/>

    <connection from=":2_0" to="c" fromLane="0" toLane="0" dir="s" state="M"/>
    <connection from=":2_1" to="c" fromLane="0" toLane="0" dir="s" state="M"/>

</net>
