<edges>
  <edge id="a" from="0" to="2" priority="2" numLanes="1" speed="30" />
  <edge id="b" from="1" to="2" priority="1" numLanes="1" speed="30" />
  <edge id="c" from="2" to="3" priority="3" numLanes="1" speed="30" />
</edges>