<nodes>
  <node id="0" x="-30.0" y="0.0" />
  <node id="1" x="-2.0" y="-6.0" />
  <node id="2" x="20.0" y="0.0" />
  <node id="3" x="40.0" y="0.0" />
</nodes>
